<?xml version="1.0" encoding="UTF-8"?>

<!-- generated on 2025-02-05 13:24:58 by Eclipse SUMO netedit Version 1.21.0
<neteditConfiguration xmlns:xsi="http://www.w3.org/2001/XMLSchema-instance" xsi:noNamespaceSchemaLocation="http://sumo.dlr.de/xsd/neteditConfiguration.xsd">

    <input>
        <sumocfg-file value="C:\Users\Kenny\Desktop\Final Year Project\simulation\Four_way_traffic\four_way.sumocfg"/>
        <additional-files value="four_way.add.xml"/>
        <route-files value="four_way.rou.xml"/>
        <data-files value="C:\Users\Kenny\Desktop\Final Year Project\simulation\Four_way_traffic\four_way.dat.xml"/>
        <sumo-net-file value="C:\Users\Kenny\Desktop\Final Year Project\simulation\Four_way_traffic\four_way.net.xml"/>
    </input>

    <output>
        <tls-file value="C:\Users\Kenny\Desktop\Final Year Project\simulation\Four_way_traffic\four_way.tll.xml"/>
        <output-file value="C:\Users\Kenny\Desktop\Final Year Project\simulation\Four_way_traffic\four_way.net.xml"/>
    </output>

    <processing>
        <geometry.min-radius.fix.railways value="false"/>
        <geometry.max-grade.fix value="false"/>
        <offset.disable-normalization value="true"/>
        <lefthand value="0"/>
    </processing>

    <junctions>
        <no-turnarounds value="true"/>
        <junctions.corner-detail value="5"/>
        <junctions.limit-turn-speed value="5.50"/>
        <rectangular-lane-cut value="0"/>
    </junctions>

    <pedestrian>
        <walkingareas value="0"/>
    </pedestrian>

</neteditConfiguration>
-->

<net version="1.20" junctionCornerDetail="5" limitTurnSpeed="5.50" xmlns:xsi="http://www.w3.org/2001/XMLSchema-instance" xsi:noNamespaceSchemaLocation="http://sumo.dlr.de/xsd/net_file.xsd">

    <location netOffset="0.00,0.00" convBoundary="15.42,109.52,547.27,384.81" origBoundary="-10000000000.00,-10000000000.00,10000000000.00,10000000000.00" projParameter="!"/>

    <edge id=":J12_0" function="internal">
        <lane id=":J12_0_0" index="0" allow="emergency" speed="13.89" length="16.07" shape="290.54,205.40 290.72,210.17 291.60,213.41 292.46,216.64 292.60,221.41"/>
        <lane id=":J12_0_1" index="1" speed="13.89" length="16.07" shape="287.34,205.20 287.53,209.95 288.40,213.19 289.26,216.42 289.41,221.17"/>
        <lane id=":J12_0_2" index="2" speed="13.89" length="16.07" shape="287.34,205.20 286.22,220.93"/>
    </edge>
    <edge id=":J22_0" function="internal">
        <lane id=":J22_0_0" index="0" speed="13.89" length="8.20" shape="159.43,268.23 151.46,268.13"/>
        <lane id=":J22_0_1" index="1" speed="13.89" length="8.20" shape="159.68,265.04 151.67,264.94"/>
        <lane id=":J22_0_2" index="2" speed="13.89" length="8.20" shape="159.68,265.04 157.27,264.43 155.78,263.37 154.28,262.33 151.87,261.75"/>
    </edge>
    <edge id=":J6_0" function="internal">
        <lane id=":J6_0_0" index="0" allow="emergency bus" speed="13.89" length="27.55" shape="150.22,254.01 177.59,256.51"/>
        <lane id=":J6_0_1" index="1" speed="13.89" length="27.55" shape="150.02,257.20 177.35,259.70"/>
        <lane id=":J6_0_2" index="2" speed="13.89" length="27.55" shape="150.02,257.20 156.52,258.21 162.13,259.89 168.46,261.64 177.11,262.89"/>
    </edge>
    <edge id=":J9_0" function="internal">
        <lane id=":J9_0_0" index="0" allow="emergency bus" speed="13.89" length="11.71" shape="401.70,287.44 398.24,287.59 395.89,288.26 393.54,288.93 390.08,289.07"/>
        <lane id=":J9_0_1" index="1" speed="13.89" length="11.71" shape="401.90,284.25 398.44,284.40 396.09,285.07 393.75,285.74 390.29,285.88"/>
        <lane id=":J9_0_2" index="2" speed="13.89" length="11.71" shape="401.90,284.25 390.50,282.69"/>
    </edge>
    <edge id=":clusterJ0_J1_J10_J13_#4more_0" function="internal">
        <lane id=":clusterJ0_J1_J10_J13_#4more_0_0" index="0" allow="emergency bus" speed="8.64" length="16.59" shape="298.07,283.04 292.91,283.25 289.13,284.63 286.73,287.20 285.71,290.94"/>
    </edge>
    <edge id=":clusterJ0_J1_J10_J13_#4more_1" function="internal">
        <lane id=":clusterJ0_J1_J10_J13_#4more_1_0" index="0" allow="emergency" speed="10.06" length="23.01" shape="298.07,283.04 289.70,283.03 283.63,284.25 279.87,286.70 278.42,290.38"/>
    </edge>
    <edge id=":clusterJ0_J1_J10_J13_#4more_2" function="internal">
        <lane id=":clusterJ0_J1_J10_J13_#4more_2_0" index="0" allow="emergency bus" speed="12.18" length="16.77" shape="298.07,283.04 290.91,280.21 284.15,274.16"/>
    </edge>
    <edge id=":clusterJ0_J1_J10_J13_#4more_3" function="internal">
        <lane id=":clusterJ0_J1_J10_J13_#4more_3_0" index="0" speed="9.81" length="21.69" shape="298.28,279.85 291.72,280.16 286.91,282.07 283.84,285.59 282.51,290.70"/>
    </edge>
    <edge id=":clusterJ0_J1_J10_J13_#4more_4" function="internal">
        <lane id=":clusterJ0_J1_J10_J13_#4more_4_0" index="0" speed="11.06" length="28.01" shape="298.28,279.85 288.50,279.94 281.40,281.69 276.97,285.09 275.23,290.14"/>
    </edge>
    <edge id=":clusterJ0_J1_J10_J13_#4more_5" function="internal">
        <lane id=":clusterJ0_J1_J10_J13_#4more_5_0" index="0" speed="13.89" length="32.50" shape="298.28,279.85 265.95,276.39"/>
        <lane id=":clusterJ0_J1_J10_J13_#4more_5_1" index="1" speed="13.89" length="32.50" shape="298.49,276.65 266.19,273.19"/>
    </edge>
    <edge id=":clusterJ0_J1_J10_J13_#4more_7" function="internal">
        <lane id=":clusterJ0_J1_J10_J13_#4more_7_0" index="0" speed="10.99" length="5.94" shape="298.49,276.65 292.78,275.04"/>
    </edge>
    <edge id=":clusterJ0_J1_J10_J13_#4more_25" function="internal">
        <lane id=":clusterJ0_J1_J10_J13_#4more_25_0" index="0" allow="emergency bus" speed="12.18" length="17.63" shape="284.15,274.16 283.84,273.87 278.55,265.99 276.72,258.49"/>
    </edge>
    <edge id=":clusterJ0_J1_J10_J13_#4more_26" function="internal">
        <lane id=":clusterJ0_J1_J10_J13_#4more_26_0" index="0" speed="10.99" length="21.90" shape="292.78,275.04 291.88,274.78 285.76,270.60 281.36,264.95 279.92,258.72"/>
    </edge>
    <edge id=":clusterJ0_J1_J10_J13_#4more_8" function="internal">
        <lane id=":clusterJ0_J1_J10_J13_#4more_8_0" index="0" allow="emergency" speed="8.42" length="15.95" shape="289.79,259.42 290.09,263.80 291.71,267.01 294.65,269.07 298.92,269.97"/>
    </edge>
    <edge id=":clusterJ0_J1_J10_J13_#4more_9" function="internal">
        <lane id=":clusterJ0_J1_J10_J13_#4more_9_0" index="0" allow="emergency" speed="13.89" length="31.78" shape="289.79,259.42 285.71,290.94"/>
    </edge>
    <edge id=":clusterJ0_J1_J10_J13_#4more_10" function="internal">
        <lane id=":clusterJ0_J1_J10_J13_#4more_10_0" index="0" allow="emergency" speed="13.89" length="33.32" shape="289.79,259.42 287.69,268.47 284.07,274.90 280.47,281.34 278.42,290.38"/>
    </edge>
    <edge id=":clusterJ0_J1_J10_J13_#4more_11" function="internal">
        <lane id=":clusterJ0_J1_J10_J13_#4more_11_0" index="0" allow="emergency" speed="12.00" length="33.30" shape="289.79,259.42 287.78,267.48 283.14,273.00 275.86,275.97 265.95,276.39"/>
    </edge>
    <edge id=":clusterJ0_J1_J10_J13_#4more_12" function="internal">
        <lane id=":clusterJ0_J1_J10_J13_#4more_12_0" index="0" speed="9.62" length="2.40" shape="286.60,259.20 286.76,261.59"/>
    </edge>
    <edge id=":clusterJ0_J1_J10_J13_#4more_13" function="internal">
        <lane id=":clusterJ0_J1_J10_J13_#4more_13_0" index="0" speed="13.89" length="31.77" shape="286.60,259.20 282.51,290.70"/>
    </edge>
    <edge id=":clusterJ0_J1_J10_J13_#4more_14" function="internal">
        <lane id=":clusterJ0_J1_J10_J13_#4more_14_0" index="0" speed="13.89" length="33.29" shape="286.60,259.20 284.50,268.24 280.88,274.66 277.28,281.09 275.23,290.14"/>
        <lane id=":clusterJ0_J1_J10_J13_#4more_14_1" index="1" speed="13.89" length="33.29" shape="283.41,258.97 281.31,268.01 277.69,274.43 274.09,280.85 272.04,289.89"/>
    </edge>
    <edge id=":clusterJ0_J1_J10_J13_#4more_16" function="internal">
        <lane id=":clusterJ0_J1_J10_J13_#4more_16_0" index="0" speed="10.55" length="25.48" shape="283.41,258.97 281.90,265.65 278.53,270.25 273.29,272.76 266.19,273.19"/>
    </edge>
    <edge id=":clusterJ0_J1_J10_J13_#4more_27" function="internal">
        <lane id=":clusterJ0_J1_J10_J13_#4more_27_0" index="0" speed="9.62" length="18.73" shape="286.76,261.59 286.99,264.99 289.14,269.25 293.05,271.97 298.72,273.17"/>
    </edge>
    <edge id=":clusterJ0_J1_J10_J13_#4more_17" function="internal">
        <lane id=":clusterJ0_J1_J10_J13_#4more_17_0" index="0" allow="emergency bus" speed="7.46" length="12.25" shape="266.94,263.37 271.07,263.33 274.08,262.51 275.96,260.90 276.72,258.49"/>
    </edge>
    <edge id=":clusterJ0_J1_J10_J13_#4more_18" function="internal">
        <lane id=":clusterJ0_J1_J10_J13_#4more_18_0" index="0" allow="emergency bus" speed="12.32" length="14.18" shape="266.94,263.37 273.47,266.70 277.89,271.93"/>
    </edge>
    <edge id=":clusterJ0_J1_J10_J13_#4more_19" function="internal">
        <lane id=":clusterJ0_J1_J10_J13_#4more_19_0" index="0" allow="emergency bus" speed="11.52" length="11.45" shape="266.94,263.37 271.23,265.33 274.04,270.45 274.19,271.32"/>
    </edge>
    <edge id=":clusterJ0_J1_J10_J13_#4more_20" function="internal">
        <lane id=":clusterJ0_J1_J10_J13_#4more_20_0" index="0" speed="8.78" length="17.39" shape="266.70,266.56 272.25,266.43 276.30,265.08 278.86,262.51 279.92,258.72"/>
    </edge>
    <edge id=":clusterJ0_J1_J10_J13_#4more_21" function="internal">
        <lane id=":clusterJ0_J1_J10_J13_#4more_21_0" index="0" speed="13.89" length="32.43" shape="266.70,266.56 298.92,269.97"/>
        <lane id=":clusterJ0_J1_J10_J13_#4more_21_1" index="1" speed="13.89" length="32.43" shape="266.45,269.75 298.72,273.17"/>
    </edge>
    <edge id=":clusterJ0_J1_J10_J13_#4more_23" function="internal">
        <lane id=":clusterJ0_J1_J10_J13_#4more_23_0" index="0" speed="11.14" length="4.02" shape="266.45,269.75 270.23,271.14"/>
    </edge>
    <edge id=":clusterJ0_J1_J10_J13_#4more_24" function="internal">
        <lane id=":clusterJ0_J1_J10_J13_#4more_24_0" index="0" speed="9.97" length="2.92" shape="266.45,269.75 269.07,271.04"/>
    </edge>
    <edge id=":clusterJ0_J1_J10_J13_#4more_28" function="internal">
        <lane id=":clusterJ0_J1_J10_J13_#4more_28_0" index="0" allow="emergency bus" speed="12.32" length="20.90" shape="277.89,271.93 279.69,274.07 284.23,282.98 285.71,290.94"/>
    </edge>
    <edge id=":clusterJ0_J1_J10_J13_#4more_29" function="internal">
        <lane id=":clusterJ0_J1_J10_J13_#4more_29_0" index="0" allow="emergency bus" speed="11.52" length="18.91" shape="274.19,271.32 275.38,278.72 275.23,290.14"/>
    </edge>
    <edge id=":clusterJ0_J1_J10_J13_#4more_30" function="internal">
        <lane id=":clusterJ0_J1_J10_J13_#4more_30_0" index="0" speed="11.14" length="24.49" shape="270.23,271.14 272.76,272.07 278.03,277.19 281.52,283.82 282.51,290.70"/>
    </edge>
    <edge id=":clusterJ0_J1_J10_J13_#4more_31" function="internal">
        <lane id=":clusterJ0_J1_J10_J13_#4more_31_0" index="0" speed="9.97" length="19.57" shape="269.07,271.04 269.40,271.21 271.31,275.05 272.19,281.28 272.04,289.89"/>
    </edge>

    <edge id="E0" from="J5" to="J6" priority="-1" shape="15.42,250.27 149.92,258.80">
        <lane id="E0_0" index="0" speed="13.89" length="134.77" shape="15.72,245.48 150.22,254.01"/>
        <lane id="E0_1" index="1" speed="13.89" length="134.77" shape="15.52,248.67 150.02,257.20"/>
    </edge>
    <edge id="E10" from="clusterJ0_J1_J10_J13_#4more" to="J22" priority="-1" spreadType="center" shape="266.07,274.79 198.43,269.64 158.95,266.59">
        <lane id="E10_0" index="0" speed="13.89" length="106.82" shape="265.95,276.39 198.31,271.24 159.43,268.23"/>
        <lane id="E10_1" index="1" speed="13.89" length="106.82" shape="266.19,273.19 198.55,268.04 159.68,265.04"/>
    </edge>
    <edge id="E11" from="J22" to="J23" priority="-1" spreadType="center" shape="152.28,264.98 19.34,256.46">
        <lane id="E11_0" index="0" speed="13.89" length="132.60" shape="151.46,268.13 19.14,259.65"/>
        <lane id="E11_1" index="1" speed="13.89" length="132.60" shape="151.67,264.94 19.34,256.46"/>
        <lane id="E11_2" index="2" speed="13.89" length="132.60" shape="151.87,261.75 19.54,253.27"/>
    </edge>
    <edge id="E12" from="clusterJ0_J1_J10_J13_#4more" to="J25" priority="-1" spreadType="center" shape="277.99,263.26 288.81,110.96">
        <lane id="E12_0" index="0" speed="13.89" length="147.18" shape="276.72,258.49 287.15,111.68"/>
        <lane id="E12_1" index="1" speed="13.89" length="147.18" shape="279.92,258.72 290.35,111.91"/>
    </edge>
    <edge id="E2" from="J8" to="J9" priority="-1" spreadType="center">
        <lane id="E2_0" index="0" speed="13.89" length="145.75" shape="547.17,296.53 401.70,287.44"/>
        <lane id="E2_1" index="1" speed="13.89" length="145.75" shape="547.37,293.33 401.90,284.25"/>
    </edge>
    <edge id="E4" from="J11" to="J12" priority="-1" spreadType="center" shape="295.03,111.28 288.94,205.30">
        <lane id="E4_0" index="0" speed="13.89" length="96.02" shape="296.74,109.58 290.54,205.40"/>
        <lane id="E4_1" index="1" speed="13.89" length="96.02" shape="293.55,109.38 287.34,205.20"/>
    </edge>
    <edge id="E6" from="J14" to="J15" priority="-1" spreadType="center">
        <lane id="E6_0" index="0" speed="13.89" length="52.66" shape="268.31,384.72 271.20,332.14"/>
        <lane id="E6_1" index="1" speed="13.89" length="52.66" shape="271.51,384.90 274.40,332.31"/>
    </edge>
    <edge id="E8" from="clusterJ0_J1_J10_J13_#4more" to="J18" priority="-1" spreadType="center" shape="284.11,290.82 277.20,380.64">
        <lane id="E8_0" index="0" speed="13.89" length="92.77" shape="285.71,290.94 278.59,383.44"/>
        <lane id="E8_1" index="1" speed="13.89" length="92.77" shape="282.51,290.70 275.40,383.20"/>
    </edge>
    <edge id="E9" from="clusterJ0_J1_J10_J13_#4more" to="J20" priority="-1" spreadType="center" shape="298.82,271.57 546.34,287.68">
        <lane id="E9_0" index="0" speed="13.89" length="248.04" shape="298.92,269.97 546.44,286.08"/>
        <lane id="E9_1" index="1" speed="13.89" length="248.04" shape="298.72,273.17 546.24,289.28"/>
    </edge>
    <edge id="East_Road" from="J9" to="clusterJ0_J1_J10_J13_#4more" priority="-1" spreadType="center" shape="390.29,285.88 297.55,279.80">
        <lane id="East_Road_0" index="0" allow="emergency bus" speed="13.89" length="92.21" shape="390.08,289.07 298.07,283.04"/>
        <lane id="East_Road_1" index="1" speed="13.89" length="92.21" shape="390.29,285.88 298.28,279.85"/>
        <lane id="East_Road_2" index="2" speed="13.89" length="92.21" shape="390.50,282.69 298.49,276.65"/>
    </edge>
    <edge id="North_Road" from="clusterJ0_J1_J10_J13_#4more" to="J15" priority="-1" spreadType="center" shape="275.21,290.48 273.07,321.91">
        <lane id="North_Road_0" index="0" allow="emergency" speed="13.89" length="31.85" shape="278.42,290.38 276.26,322.13"/>
        <lane id="North_Road_1" index="1" speed="13.89" length="31.85" shape="275.23,290.14 273.07,321.91"/>
        <lane id="North_Road_2" index="2" speed="13.89" length="31.85" shape="272.04,289.89 269.88,321.69"/>
    </edge>
    <edge id="South_Road" from="J12" to="clusterJ0_J1_J10_J13_#4more" priority="-1" spreadType="center" shape="289.41,221.17 286.31,263.09">
        <lane id="South_Road_0" index="0" allow="emergency" speed="13.89" length="38.13" shape="292.60,221.41 289.79,259.42"/>
        <lane id="South_Road_1" index="1" speed="13.89" length="38.13" shape="289.41,221.17 286.60,259.20"/>
        <lane id="South_Road_2" index="2" speed="13.89" length="38.13" shape="286.22,220.93 283.41,258.97"/>
    </edge>
    <edge id="West_Road" from="J6" to="clusterJ0_J1_J10_J13_#4more" priority="-1" spreadType="center" shape="177.35,259.70 270.88,266.88">
        <lane id="West_Road_0" index="0" allow="emergency bus" speed="13.89" length="89.61" shape="177.59,256.51 266.94,263.37"/>
        <lane id="West_Road_1" index="1" speed="13.89" length="89.61" shape="177.35,259.70 266.70,266.56"/>
        <lane id="West_Road_2" index="2" speed="13.89" length="89.61" shape="177.11,262.89 266.45,269.75"/>
    </edge>

    <tlLogic id="clusterJ0_J1_J10_J13_#4more" type="static" programID="0" offset="0">
        <phase duration="42" state="GGgggGGgrrrrrrrrrGgggGGgg"/>
        <phase duration="3"  state="yyyyyyyyrrrrrrrrrGyygyyyy"/>
        <phase duration="42" state="rrrrrrrrGGGggGGGGGrrGrrrr"/>
        <phase duration="3"  state="rrrrrrrryyyyyyyyyGrrgrrrr"/>
    </tlLogic>

    <junction id="J11" type="dead_end" x="295.76" y="109.52" incLanes="" intLanes="" shape="291.95,109.27 298.34,109.69"/>
    <junction id="J12" type="priority" x="290.66" y="206.20" incLanes="E4_0 E4_1" intLanes=":J12_0_0 :J12_0_1 :J12_0_2" shape="292.13,205.51 285.75,205.09 284.62,220.82 294.20,221.52 294.21,218.10 293.81,215.58 293.19,213.52 292.57,211.45 292.15,208.93">
        <request index="0" response="000" foes="000" cont="0"/>
        <request index="1" response="000" foes="000" cont="0"/>
        <request index="2" response="000" foes="000" cont="0"/>
    </junction>
    <junction id="J14" type="dead_end" x="269.91" y="384.81" incLanes="" intLanes="" shape="273.11,384.99 266.71,384.63"/>
    <junction id="J15" type="dead_end" x="272.40" y="339.54" incLanes="North_Road_0 North_Road_1 North_Road_2 E6_0 E6_1" intLanes="" shape="277.86,322.24 268.28,321.58 268.27,323.82 268.53,325.47 268.92,326.82 269.31,328.17 269.58,329.81 269.61,332.05 276.00,332.40 276.21,330.22 276.53,328.62 276.90,327.32 277.28,326.02 277.62,324.42"/>
    <junction id="J18" type="dead_end" x="276.62" y="383.29" incLanes="E8_0 E8_1" intLanes="" shape="280.18,383.56 273.80,383.07"/>
    <junction id="J20" type="dead_end" x="546.34" y="287.68" incLanes="E9_0 E9_1" intLanes="" shape="546.55,284.49 546.13,290.87"/>
    <junction id="J22" type="priority" x="158.95" y="266.59" incLanes="E10_0 E10_1" intLanes=":J22_0_0 :J22_0_1 :J22_0_2" shape="159.31,269.83 159.80,263.45 156.83,262.51 155.89,261.78 154.95,261.05 153.73,260.47 151.97,260.15 151.36,269.73">
        <request index="0" response="000" foes="000" cont="0"/>
        <request index="1" response="000" foes="000" cont="0"/>
        <request index="2" response="000" foes="000" cont="0"/>
    </junction>
    <junction id="J23" type="dead_end" x="19.34" y="256.46" incLanes="E11_0 E11_1 E11_2" intLanes="" shape="19.03,261.25 19.65,251.67"/>
    <junction id="J25" type="dead_end" x="290.55" y="111.92" incLanes="E12_0 E12_1" intLanes="" shape="285.56,111.57 291.94,112.02"/>
    <junction id="J5" type="dead_end" x="15.42" y="250.27" incLanes="" intLanes="" shape="15.42,250.27 15.83,243.88"/>
    <junction id="J6" type="priority" x="156.45" y="249.57" incLanes="E0_0 E0_1" intLanes=":J6_0_0 :J6_0_1 :J6_0_2" shape="176.98,264.49 177.72,254.91 150.33,252.41 149.92,258.80 155.76,259.45 160.01,260.43 163.46,261.57 166.91,262.74 171.15,263.76">
        <request index="0" response="000" foes="000" cont="0"/>
        <request index="1" response="000" foes="000" cont="0"/>
        <request index="2" response="000" foes="000" cont="0"/>
    </junction>
    <junction id="J8" type="dead_end" x="547.27" y="294.93" incLanes="" intLanes="" shape="547.47,291.74 547.07,298.12"/>
    <junction id="J9" type="priority" x="405.28" y="286.06" incLanes="E2_0 E2_1" intLanes=":J9_0_0 :J9_0_1 :J9_0_2" shape="401.60,289.04 402.00,282.65 390.60,281.09 389.98,290.67 392.46,290.66 394.29,290.34 397.29,289.38 399.11,289.06">
        <request index="0" response="000" foes="000" cont="0"/>
        <request index="1" response="000" foes="000" cont="0"/>
        <request index="2" response="000" foes="000" cont="0"/>
    </junction>
    <junction id="clusterJ0_J1_J10_J13_#4more" type="traffic_light" x="282.75" y="280.32" incLanes="East_Road_0 East_Road_1 East_Road_2 South_Road_0 South_Road_1 South_Road_2 West_Road_0 West_Road_1 West_Road_2" intLanes=":clusterJ0_J1_J10_J13_#4more_0_0 :clusterJ0_J1_J10_J13_#4more_1_0 :clusterJ0_J1_J10_J13_#4more_25_0 :clusterJ0_J1_J10_J13_#4more_3_0 :clusterJ0_J1_J10_J13_#4more_4_0 :clusterJ0_J1_J10_J13_#4more_5_0 :clusterJ0_J1_J10_J13_#4more_5_1 :clusterJ0_J1_J10_J13_#4more_26_0 :clusterJ0_J1_J10_J13_#4more_8_0 :clusterJ0_J1_J10_J13_#4more_9_0 :clusterJ0_J1_J10_J13_#4more_10_0 :clusterJ0_J1_J10_J13_#4more_11_0 :clusterJ0_J1_J10_J13_#4more_27_0 :clusterJ0_J1_J10_J13_#4more_13_0 :clusterJ0_J1_J10_J13_#4more_14_0 :clusterJ0_J1_J10_J13_#4more_14_1 :clusterJ0_J1_J10_J13_#4more_16_0 :clusterJ0_J1_J10_J13_#4more_17_0 :clusterJ0_J1_J10_J13_#4more_28_0 :clusterJ0_J1_J10_J13_#4more_29_0 :clusterJ0_J1_J10_J13_#4more_20_0 :clusterJ0_J1_J10_J13_#4more_21_0 :clusterJ0_J1_J10_J13_#4more_21_1 :clusterJ0_J1_J10_J13_#4more_30_0 :clusterJ0_J1_J10_J13_#4more_31_0" shape="297.97,284.64 299.03,268.38 296.52,267.98 294.51,267.16 292.99,265.90 291.96,264.21 291.43,262.09 291.39,259.54 275.13,258.38 274.11,260.53 272.97,261.22 271.42,261.66 269.45,261.84 267.06,261.77 265.83,277.98 268.74,279.47 269.68,281.13 270.28,283.40 270.53,286.28 270.45,289.77 287.30,291.07 287.75,288.92 288.73,287.20 290.24,285.91 292.28,285.06 294.86,284.63">
        <request index="0"  response="0000000000000000000000000" foes="0100001000010001000000000" cont="0"/>
        <request index="1"  response="0000000000000000000000000" foes="0100011000010011000001000" cont="0"/>
        <request index="2"  response="0011100100000000001100000" foes="0011100111110111001111000" cont="1"/>
        <request index="3"  response="0000000000000000000000110" foes="0100001000010001000000110" cont="0"/>
        <request index="4"  response="0000000000000000000000100" foes="1100011001110011000000100" cont="0"/>
        <request index="5"  response="0000000000000000000000000" foes="1100011011110111000000100" cont="0"/>
        <request index="6"  response="0000000000000000000000000" foes="1100011011110111000000100" cont="0"/>
        <request index="7"  response="0011100100000000000000000" foes="0011100111110111000000000" cont="1"/>
        <request index="8"  response="0011000000000000000000000" foes="0011000000000000000000000" cont="0"/>
        <request index="9"  response="0111001000000000011111111" foes="0111001000001000011111111" cont="0"/>
        <request index="10" response="0111011000000000011110110" foes="0111011000011000011110110" cont="0"/>
        <request index="11" response="1111011001110000011100100" foes="1111011001111000011100100" cont="0"/>
        <request index="12" response="0011000000000111000000000" foes="0011000000000111000000000" cont="1"/>
        <request index="13" response="0111001000000000011111111" foes="0111001000000110011111111" cont="0"/>
        <request index="14" response="1111011000000000011110110" foes="1111011000000100011110110" cont="0"/>
        <request index="15" response="1111011000000000011110110" foes="1111011000000100011110110" cont="0"/>
        <request index="16" response="1111011000000000011100100" foes="1111011000000000011100100" cont="0"/>
        <request index="17" response="0000000000000000000000000" foes="0000000000000000010000100" cont="0"/>
        <request index="18" response="0011000000000000001111011" foes="0011100011110111001111011" cont="1"/>
        <request index="19" response="0111000000000000001110010" foes="0111100011100110001110010" cont="1"/>
        <request index="20" response="0000011000000000000000000" foes="0000011000000000010000100" cont="0"/>
        <request index="21" response="0000000000001000000000000" foes="0000011011111111110000100" cont="0"/>
        <request index="22" response="0000000000001000000000000" foes="0000011011111111110000100" cont="0"/>
        <request index="23" response="0000000000000000001111011" foes="0000010011110111001111011" cont="1"/>
        <request index="24" response="0000000000000000001110010" foes="0000000011100110001110010" cont="1"/>
    </junction>

    <junction id=":clusterJ0_J1_J10_J13_#4more_25_0" type="internal" x="284.15" y="274.16" incLanes=":clusterJ0_J1_J10_J13_#4more_2_0 West_Road_0 West_Road_1 West_Road_2" intLanes=":clusterJ0_J1_J10_J13_#4more_5_0 :clusterJ0_J1_J10_J13_#4more_5_1 :clusterJ0_J1_J10_J13_#4more_9_0 :clusterJ0_J1_J10_J13_#4more_10_0 :clusterJ0_J1_J10_J13_#4more_11_0 :clusterJ0_J1_J10_J13_#4more_13_0 :clusterJ0_J1_J10_J13_#4more_14_0 :clusterJ0_J1_J10_J13_#4more_14_1 :clusterJ0_J1_J10_J13_#4more_16_0 :clusterJ0_J1_J10_J13_#4more_17_0 :clusterJ0_J1_J10_J13_#4more_20_0 :clusterJ0_J1_J10_J13_#4more_21_0 :clusterJ0_J1_J10_J13_#4more_21_1"/>
    <junction id=":clusterJ0_J1_J10_J13_#4more_26_0" type="internal" x="292.78" y="275.04" incLanes=":clusterJ0_J1_J10_J13_#4more_7_0 West_Road_0 West_Road_1 West_Road_2" intLanes=":clusterJ0_J1_J10_J13_#4more_9_0 :clusterJ0_J1_J10_J13_#4more_10_0 :clusterJ0_J1_J10_J13_#4more_11_0 :clusterJ0_J1_J10_J13_#4more_13_0 :clusterJ0_J1_J10_J13_#4more_14_0 :clusterJ0_J1_J10_J13_#4more_14_1 :clusterJ0_J1_J10_J13_#4more_16_0 :clusterJ0_J1_J10_J13_#4more_17_0 :clusterJ0_J1_J10_J13_#4more_20_0 :clusterJ0_J1_J10_J13_#4more_21_0 :clusterJ0_J1_J10_J13_#4more_21_1"/>
    <junction id=":clusterJ0_J1_J10_J13_#4more_27_0" type="internal" x="286.76" y="261.59" incLanes=":clusterJ0_J1_J10_J13_#4more_12_0 South_Road_0" intLanes=":clusterJ0_J1_J10_J13_#4more_9_0 :clusterJ0_J1_J10_J13_#4more_10_0 :clusterJ0_J1_J10_J13_#4more_11_0 :clusterJ0_J1_J10_J13_#4more_21_0 :clusterJ0_J1_J10_J13_#4more_21_1"/>
    <junction id=":clusterJ0_J1_J10_J13_#4more_28_0" type="internal" x="277.89" y="271.93" incLanes=":clusterJ0_J1_J10_J13_#4more_18_0 East_Road_0 East_Road_1 East_Road_2" intLanes=":clusterJ0_J1_J10_J13_#4more_0_0 :clusterJ0_J1_J10_J13_#4more_1_0 :clusterJ0_J1_J10_J13_#4more_3_0 :clusterJ0_J1_J10_J13_#4more_4_0 :clusterJ0_J1_J10_J13_#4more_5_0 :clusterJ0_J1_J10_J13_#4more_5_1 :clusterJ0_J1_J10_J13_#4more_9_0 :clusterJ0_J1_J10_J13_#4more_10_0 :clusterJ0_J1_J10_J13_#4more_11_0 :clusterJ0_J1_J10_J13_#4more_13_0 :clusterJ0_J1_J10_J13_#4more_14_0 :clusterJ0_J1_J10_J13_#4more_14_1 :clusterJ0_J1_J10_J13_#4more_16_0 :clusterJ0_J1_J10_J13_#4more_21_0 :clusterJ0_J1_J10_J13_#4more_21_1"/>
    <junction id=":clusterJ0_J1_J10_J13_#4more_29_0" type="internal" x="274.19" y="271.32" incLanes=":clusterJ0_J1_J10_J13_#4more_19_0 East_Road_0 East_Road_1 East_Road_2" intLanes=":clusterJ0_J1_J10_J13_#4more_1_0 :clusterJ0_J1_J10_J13_#4more_4_0 :clusterJ0_J1_J10_J13_#4more_5_0 :clusterJ0_J1_J10_J13_#4more_5_1 :clusterJ0_J1_J10_J13_#4more_10_0 :clusterJ0_J1_J10_J13_#4more_11_0 :clusterJ0_J1_J10_J13_#4more_14_0 :clusterJ0_J1_J10_J13_#4more_14_1 :clusterJ0_J1_J10_J13_#4more_16_0 :clusterJ0_J1_J10_J13_#4more_21_0 :clusterJ0_J1_J10_J13_#4more_21_1 :clusterJ0_J1_J10_J13_#4more_23_0"/>
    <junction id=":clusterJ0_J1_J10_J13_#4more_30_0" type="internal" x="270.23" y="271.14" incLanes=":clusterJ0_J1_J10_J13_#4more_23_0 East_Road_0 East_Road_1 East_Road_2" intLanes=":clusterJ0_J1_J10_J13_#4more_0_0 :clusterJ0_J1_J10_J13_#4more_1_0 :clusterJ0_J1_J10_J13_#4more_3_0 :clusterJ0_J1_J10_J13_#4more_4_0 :clusterJ0_J1_J10_J13_#4more_5_0 :clusterJ0_J1_J10_J13_#4more_5_1 :clusterJ0_J1_J10_J13_#4more_9_0 :clusterJ0_J1_J10_J13_#4more_10_0 :clusterJ0_J1_J10_J13_#4more_11_0 :clusterJ0_J1_J10_J13_#4more_13_0 :clusterJ0_J1_J10_J13_#4more_14_0 :clusterJ0_J1_J10_J13_#4more_14_1 :clusterJ0_J1_J10_J13_#4more_16_0"/>
    <junction id=":clusterJ0_J1_J10_J13_#4more_31_0" type="internal" x="269.07" y="271.04" incLanes=":clusterJ0_J1_J10_J13_#4more_24_0 East_Road_0 East_Road_1 East_Road_2" intLanes=":clusterJ0_J1_J10_J13_#4more_1_0 :clusterJ0_J1_J10_J13_#4more_4_0 :clusterJ0_J1_J10_J13_#4more_5_0 :clusterJ0_J1_J10_J13_#4more_5_1 :clusterJ0_J1_J10_J13_#4more_10_0 :clusterJ0_J1_J10_J13_#4more_11_0 :clusterJ0_J1_J10_J13_#4more_14_0 :clusterJ0_J1_J10_J13_#4more_14_1 :clusterJ0_J1_J10_J13_#4more_16_0"/>

    <connection from="E0" to="West_Road" fromLane="0" toLane="0" via=":J6_0_0" dir="s" state="M"/>
    <connection from="E0" to="West_Road" fromLane="1" toLane="1" via=":J6_0_1" dir="s" state="M"/>
    <connection from="E0" to="West_Road" fromLane="1" toLane="2" via=":J6_0_2" dir="s" state="M"/>
    <connection from="E10" to="E11" fromLane="0" toLane="0" via=":J22_0_0" dir="s" state="M"/>
    <connection from="E10" to="E11" fromLane="1" toLane="1" via=":J22_0_1" dir="s" state="M"/>
    <connection from="E10" to="E11" fromLane="1" toLane="2" via=":J22_0_2" dir="s" state="M"/>
    <connection from="E2" to="East_Road" fromLane="0" toLane="0" via=":J9_0_0" dir="s" state="M"/>
    <connection from="E2" to="East_Road" fromLane="1" toLane="1" via=":J9_0_1" dir="s" state="M"/>
    <connection from="E2" to="East_Road" fromLane="1" toLane="2" via=":J9_0_2" dir="s" state="M"/>
    <connection from="E4" to="South_Road" fromLane="0" toLane="0" via=":J12_0_0" dir="s" state="M"/>
    <connection from="E4" to="South_Road" fromLane="1" toLane="1" via=":J12_0_1" dir="s" state="M"/>
    <connection from="E4" to="South_Road" fromLane="1" toLane="2" via=":J12_0_2" dir="s" state="M"/>
    <connection from="East_Road" to="E8" fromLane="0" toLane="0" via=":clusterJ0_J1_J10_J13_#4more_0_0" tl="clusterJ0_J1_J10_J13_#4more" linkIndex="0" dir="r" state="O"/>
    <connection from="East_Road" to="North_Road" fromLane="0" toLane="0" via=":clusterJ0_J1_J10_J13_#4more_1_0" tl="clusterJ0_J1_J10_J13_#4more" linkIndex="1" dir="R" state="O"/>
    <connection from="East_Road" to="E12" fromLane="0" toLane="0" via=":clusterJ0_J1_J10_J13_#4more_2_0" tl="clusterJ0_J1_J10_J13_#4more" linkIndex="2" dir="l" state="o"/>
    <connection from="East_Road" to="E8" fromLane="1" toLane="1" via=":clusterJ0_J1_J10_J13_#4more_3_0" tl="clusterJ0_J1_J10_J13_#4more" linkIndex="3" dir="r" state="o"/>
    <connection from="East_Road" to="North_Road" fromLane="1" toLane="1" via=":clusterJ0_J1_J10_J13_#4more_4_0" tl="clusterJ0_J1_J10_J13_#4more" linkIndex="4" dir="R" state="o"/>